resultados/auditoria/CN12/CN12_EXP_VOLTAGES.CSV
Bus, BasekV, Node1, Magnitude1, Angle1, pu1, Node2, Magnitude2, Angle2, pu2, Node3, Magnitude3, Angle3, pu3
"CN_ALCN-12", 13.8, 1,     7967.3,    0.0,   0.99998, 2,     7967.3, -120.0,   0.99998, 3,     7967.3,  120.0,   0.99998
"SCN_CN12_9032_CEI033", 13.8, 1,          0,    0.0,         0, 2,          0,    0.0,         0, 3,          0,    0.0,         0
"SCN_CN12_9033_CEI033", 13.8, 1,          0,    0.0,         0, 2,          0,    0.0,         0, 3,          0,    0.0,         0
"SCN_CN12_9031_CEI033", 13.8, 1,          0,    0.0,         0, 2,          0,    0.0,         0, 3,          0,    0.0,         0
"SCN_CN12_CEI_FL_MT_1272", 13.8, 1,          0,    0.0,         0, 2,          0,    0.0,         0, 3,          0,    0.0,         0
"SCN_CN12_9112_CEI033", 13.8, 1,          0,    0.0,         0, 2,          0,    0.0,         0, 3,          0,    0.0,         0
"SCN_CN12_9111_CEI033", 13.8, 1,          0,    0.0,         0, 2,          0,    0.0,         0, 3,          0,    0.0,         0
"SCN_CN12_9110_CEI033", 13.8, 1,          0,    0.0,         0, 2,          0,    0.0,         0, 3,          0,    0.0,         0
"SCN_CN12_9109_CEI033", 13.8, 1,          0,    0.0,         0, 2,          0,    0.0,         0, 3,          0,    0.0,         0
"SCN_CN12_9108_CEI033_S", 13.8, 1,          0,    0.0,         0, 2,          0,    0.0,         0, 3,          0,    0.0,         0
"SCN_CN12_9107_CEI033", 13.8, 1,          0,    0.0,         0, 2,          0,    0.0,         0, 3,          0,    0.0,         0
"SCN_CN12_9106_CEI033", 13.8, 1,          0,    0.0,         0, 2,          0,    0.0,         0, 3,          0,    0.0,         0
"SCN_CN12_9105_CEI033", 13.8, 1,          0,    0.0,         0, 2,          0,    0.0,         0, 3,          0,    0.0,         0
"SCN_CN12_9104_CEI033", 13.8, 1,          0,    0.0,         0, 2,          0,    0.0,         0, 3,          0,    0.0,         0
"SCN_CN12_9103_CEI033", 13.8, 1,          0,    0.0,         0, 2,          0,    0.0,         0, 3,          0,    0.0,         0
"SCN_CN12_9102_CEI033", 13.8, 1,          0,    0.0,         0, 2,          0,    0.0,         0, 3,          0,    0.0,         0
"SCN_CN12_9101_CEI033", 13.8, 1,          0,    0.0,         0, 2,          0,    0.0,         0, 3,          0,    0.0,         0
"SCN_CN12_9100_CEI033", 13.8, 1,          0,    0.0,         0, 2,          0,    0.0,         0, 3,          0,    0.0,         0
"SCN_CN12_9099_CEI033", 13.8, 1,          0,    0.0,         0, 2,          0,    0.0,         0, 3,          0,    0.0,         0
"SCN_CN12_9098_CEI033", 13.8, 1,          0,    0.0,         0, 2,          0,    0.0,         0, 3,          0,    0.0,         0
"SCN_CN12_9097_CEI033", 13.8, 1,          0,    0.0,         0, 2,          0,    0.0,         0, 3,          0,    0.0,         0
"SCN_CN12_9096_CEI033", 13.8, 1,          0,    0.0,         0, 2,          0,    0.0,         0, 3,          0,    0.0,         0
"SCN_CN12_9095_CEI033", 13.8, 1,          0,    0.0,         0, 2,          0,    0.0,         0, 3,          0,    0.0,         0
"SCN_CN12_9093_CEI033", 13.8, 1,          0,    0.0,         0, 2,          0,    0.0,         0, 3,          0,    0.0,         0
"SCN_CN12_9094_CEI033", 13.8, 1,          0,    0.0,         0, 2,          0,    0.0,         0, 3,          0,    0.0,         0
"SCN_CN12_9035_CEI079", 13.8, 1,          0,    0.0,         0, 2,          0,    0.0,         0, 3,          0,    0.0,         0
"SCN_CN12_9036_CEI079", 13.8, 1,          0,    0.0,         0, 2,          0,    0.0,         0, 3,          0,    0.0,         0
"SCN_CN12_9037_CEI079", 13.8, 1,          0,    0.0,         0, 2,          0,    0.0,         0, 3,          0,    0.0,         0
"SCN_CN12_9046_CEI079", 13.8, 1,          0,    0.0,         0, 2,          0,    0.0,         0, 3,          0,    0.0,         0
"SCN_CN12_9047_CEI079", 13.8, 1,          0,    0.0,         0, 2,          0,    0.0,         0, 3,          0,    0.0,         0
"SCN_CN12_9048_CEI079", 13.8, 1,          0,    0.0,         0, 2,          0,    0.0,         0, 3,          0,    0.0,         0
"SCN_CN12_9175_CEIRJ001_ATV_S", 13.8, 1,          0,    0.0,         0, 2,          0,    0.0,         0, 3,          0,    0.0,         0
"SCN_CN12_9175_CEIRJ001_ATV", 13.8, 1,          0,    0.0,         0, 2,          0,    0.0,         0, 3,          0,    0.0,         0
"SCN_CN12_9060_CEI079", 13.8, 1,          0,    0.0,         0, 2,          0,    0.0,         0, 3,          0,    0.0,         0
"SCN_CN12_9054_CEI079", 13.8, 1,          0,    0.0,         0, 2,          0,    0.0,         0, 3,          0,    0.0,         0
"SCN_CN12_9055_CEI079", 13.8, 1,          0,    0.0,         0, 2,          0,    0.0,         0, 3,          0,    0.0,         0
"SCN_CN12_9059_CEI079", 13.8, 1,          0,    0.0,         0, 2,          0,    0.0,         0, 3,          0,    0.0,         0
"SCN_CN12_9001_CEI85A", 13.8, 1,          0,    0.0,         0, 2,          0,    0.0,         0, 3,          0,    0.0,         0
"SCN_CN12_9002_CEI85A", 13.8, 1,          0,    0.0,         0, 2,          0,    0.0,         0, 3,          0,    0.0,         0
"SCN_CN12_9003_CEI85A", 13.8, 1,          0,    0.0,         0, 2,          0,    0.0,         0, 3,          0,    0.0,         0
"SCN_CN12_9004_CEI85A", 13.8, 1,          0,    0.0,         0, 2,          0,    0.0,         0, 3,          0,    0.0,         0
"SCN_CN12_9005_CEI85A", 13.8, 1,          0,    0.0,         0, 2,          0,    0.0,         0, 3,          0,    0.0,         0
"SCN_CN12_9006_CEI85A", 13.8, 1,          0,    0.0,         0, 2,          0,    0.0,         0, 3,          0,    0.0,         0
"SCN_CN12_9013_CEI85A", 13.8, 1,          0,    0.0,         0, 2,          0,    0.0,         0, 3,          0,    0.0,         0
"SCN_CN12_9014_CEI85A", 13.8, 1,          0,    0.0,         0, 2,          0,    0.0,         0, 3,          0,    0.0,         0
"SCN_CN12_9021_CEI85A", 13.8, 1,          0,    0.0,         0, 2,          0,    0.0,         0, 3,          0,    0.0,         0
"SCN_CN12_9068_CEI280_ATV", 13.8, 1,          0,    0.0,         0, 2,          0,    0.0,         0, 3,          0,    0.0,         0
"SCN_CN12_9022_CEI85A", 13.8, 1,          0,    0.0,         0, 2,          0,    0.0,         0, 3,          0,    0.0,         0
"SCN_CN12_9023_CEI85A", 13.8, 1,          0,    0.0,         0, 2,          0,    0.0,         0, 3,          0,    0.0,         0
"SCN_CN12_9024_CEI85A", 13.8, 1,          0,    0.0,         0, 2,          0,    0.0,         0, 3,          0,    0.0,         0
"SCN_CN12_9025_CEI85A", 13.8, 1,          0,    0.0,         0, 2,          0,    0.0,         0, 3,          0,    0.0,         0
"SCN_CN12_9026_CEI85A", 13.8, 1,          0,    0.0,         0, 2,          0,    0.0,         0, 3,          0,    0.0,         0
"SCN_CN12_9027_CEI85A", 13.8, 1,          0,    0.0,         0, 2,          0,    0.0,         0, 3,          0,    0.0,         0
"SCN_CN12_9001_CEI085", 13.8, 1,          0,    0.0,         0, 2,          0,    0.0,         0, 3,          0,    0.0,         0
"SCN_CN12_9002_CEI085", 13.8, 1,          0,    0.0,         0, 2,          0,    0.0,         0, 3,          0,    0.0,         0
"SCN_CN12_9003_CEI085", 13.8, 1,          0,    0.0,         0, 2,          0,    0.0,         0, 3,          0,    0.0,         0
"SCN_CN12_9004_CEI085", 13.8, 1,          0,    0.0,         0, 2,          0,    0.0,         0, 3,          0,    0.0,         0
"SCN_CN12_9009_CEI085", 13.8, 1,          0,    0.0,         0, 2,          0,    0.0,         0, 3,          0,    0.0,         0
"SCN_CN12_9028_CEI85A", 13.8, 1,          0,    0.0,         0, 2,          0,    0.0,         0, 3,          0,    0.0,         0
"SCN_CN12_9029_CEI85A", 13.8, 1,          0,    0.0,         0, 2,          0,    0.0,         0, 3,          0,    0.0,         0
"SCN_CN12_9030_CEI85A", 13.8, 1,          0,    0.0,         0, 2,          0,    0.0,         0, 3,          0,    0.0,         0
"SCN_CN12_9031_CEI85A", 13.8, 1,          0,    0.0,         0, 2,          0,    0.0,         0, 3,          0,    0.0,         0
"SCN_CN12_9032_CEI85A", 13.8, 1,          0,    0.0,         0, 2,          0,    0.0,         0, 3,          0,    0.0,         0
"SCN_CN12_9033_CEI85A", 13.8, 1,          0,    0.0,         0, 2,          0,    0.0,         0, 3,          0,    0.0,         0
"SCN_CN12_9034_CEI85A", 13.8, 1,          0,    0.0,         0, 2,          0,    0.0,         0, 3,          0,    0.0,         0
"SCN_CN12_9074_CEI079", 13.8, 1,          0,    0.0,         0, 2,          0,    0.0,         0, 3,          0,    0.0,         0
"SCN_CN12_9075_CEI079", 13.8, 1,          0,    0.0,         0, 2,          0,    0.0,         0, 3,          0,    0.0,         0
"SCN_CN12_9076_CEI079", 13.8, 1,          0,    0.0,         0, 2,          0,    0.0,         0, 3,          0,    0.0,         0
"SCN_CN12_9093_CEI079", 13.8, 1,          0,    0.0,         0, 2,          0,    0.0,         0, 3,          0,    0.0,         0
"SCN_CN12_9094_CEI079", 13.8, 1,          0,    0.0,         0, 2,          0,    0.0,         0, 3,          0,    0.0,         0
"SCN_CN12_9095_CEI079", 13.8, 1,          0,    0.0,         0, 2,          0,    0.0,         0, 3,          0,    0.0,         0
"SCN_CN12_9096_CEI079", 13.8, 1,          0,    0.0,         0, 2,          0,    0.0,         0, 3,          0,    0.0,         0
"SCN_CN12_9001_CEI79A", 13.8, 1,          0,    0.0,         0, 2,          0,    0.0,         0, 3,          0,    0.0,         0
"SCN_CN12_9002_CEI79A", 13.8, 1,          0,    0.0,         0, 2,          0,    0.0,         0, 3,          0,    0.0,         0
"SCN_CN12_9003_CEI79A", 13.8, 1,          0,    0.0,         0, 2,          0,    0.0,         0, 3,          0,    0.0,         0
"SCN_CN12_9004_CEI79A", 13.8, 1,          0,    0.0,         0, 2,          0,    0.0,         0, 3,          0,    0.0,         0
"SCN_CN12_9006_CEI79A", 13.8, 1,          0,    0.0,         0, 2,          0,    0.0,         0, 3,          0,    0.0,         0
"SCN_CN12_9007_CEI79A", 13.8, 1,          0,    0.0,         0, 2,          0,    0.0,         0, 3,          0,    0.0,         0
"SCN_CN12_9017_CEI79A", 13.8, 1,          0,    0.0,         0, 2,          0,    0.0,         0, 3,          0,    0.0,         0
"SCN_CN12_9053_CEI079", 13.8, 1,          0,    0.0,         0, 2,          0,    0.0,         0, 3,          0,    0.0,         0
"SCN_CN12_9052_CEI079", 13.8, 1,          0,    0.0,         0, 2,          0,    0.0,         0, 3,          0,    0.0,         0
"SCN_CN12_9001_CEI079", 13.8, 1,          0,    0.0,         0, 2,          0,    0.0,         0, 3,          0,    0.0,         0
"SCN_CN12_9002_CEI079", 13.8, 1,          0,    0.0,         0, 2,          0,    0.0,         0, 3,          0,    0.0,         0
"SCN_CN12_9003_CEI079", 13.8, 1,          0,    0.0,         0, 2,          0,    0.0,         0, 3,          0,    0.0,         0
"SCN_CN12_9174_CEIRJ001_ATV", 13.8, 1,          0,    0.0,         0, 2,          0,    0.0,         0, 3,          0,    0.0,         0
"SCN_CN12_9004_CEI079", 13.8, 1,          0,    0.0,         0, 2,          0,    0.0,         0, 3,          0,    0.0,         0
"SCN_CN12_9008_CEI079", 13.8, 1,          0,    0.0,         0, 2,          0,    0.0,         0, 3,          0,    0.0,         0
"SCN_CN12_9020_CEI079", 13.8, 1,          0,    0.0,         0, 2,          0,    0.0,         0, 3,          0,    0.0,         0
"SCN_CN12_9026_CEI079", 13.8, 1,          0,    0.0,         0, 2,          0,    0.0,         0, 3,          0,    0.0,         0
"SCN_CN12_9027_CEI079", 13.8, 1,          0,    0.0,         0, 2,          0,    0.0,         0, 3,          0,    0.0,         0
"SCN_CN12_9030_CEI079", 13.8, 1,          0,    0.0,         0, 2,          0,    0.0,         0, 3,          0,    0.0,         0
"SCN_CN12_9165_CEIRJ001_ATV", 13.8, 1,          0,    0.0,         0, 2,          0,    0.0,         0, 3,          0,    0.0,         0
"SCN_CN12_CEI_FL_MT_1275", 13.8, 1,          0,    0.0,         0, 2,          0,    0.0,         0, 3,          0,    0.0,         0
"SCN_CN12_9039_CEI033", 13.8, 1,          0,    0.0,         0, 2,          0,    0.0,         0, 3,          0,    0.0,         0
"SCN_CN12_9086_CEIRJ001_ATV", 13.8, 1,          0,    0.0,         0, 2,          0,    0.0,         0, 3,          0,    0.0,         0
"SCN_CN12_9036_CEI033", 13.8, 1,          0,    0.0,         0, 2,          0,    0.0,         0, 3,          0,    0.0,         0
"SCN_CN12_9038_CEI033", 13.8, 1,          0,    0.0,         0, 2,          0,    0.0,         0, 3,          0,    0.0,         0
"SCN_CN12_9035_CEI033", 13.8, 1,          0,    0.0,         0, 2,          0,    0.0,         0, 3,          0,    0.0,         0
"SCN_CN12_9113_CEI033", 13.8, 1,          0,    0.0,         0, 2,          0,    0.0,         0, 3,          0,    0.0,         0
"SCN_CN12_9034_CEI033", 13.8, 1,          0,    0.0,         0, 2,          0,    0.0,         0, 3,          0,    0.0,         0
"SCN_CN12_9016_CEI099", 13.8, 1,          0,    0.0,         0, 2,          0,    0.0,         0, 3,          0,    0.0,         0
"SCN_CN12_9015_CEI099", 13.8, 1,          0,    0.0,         0, 2,          0,    0.0,         0, 3,          0,    0.0,         0
"SCN_CN12_9068_CEI095", 13.8, 1,          0,    0.0,         0, 2,          0,    0.0,         0, 3,          0,    0.0,         0
"SCN_CN12_9069_CEI095", 13.8, 1,          0,    0.0,         0, 2,          0,    0.0,         0, 3,          0,    0.0,         0
"SCN_CN12_9077_CEI095", 13.8, 1,          0,    0.0,         0, 2,          0,    0.0,         0, 3,          0,    0.0,         0
"SCN_CN12_9078_CEI095", 13.8, 1,          0,    0.0,         0, 2,          0,    0.0,         0, 3,          0,    0.0,         0
"SCN_CN12_9079_CEI095", 13.8, 1,          0,    0.0,         0, 2,          0,    0.0,         0, 3,          0,    0.0,         0
"SCN_CN12_9081_CEI095", 13.8, 1,          0,    0.0,         0, 2,          0,    0.0,         0, 3,          0,    0.0,         0
"SCN_CN12_9080_CEI095", 13.8, 1,          0,    0.0,         0, 2,          0,    0.0,         0, 3,          0,    0.0,         0
"SCN_CN12_9049_CEI099", 13.8, 1,          0,    0.0,         0, 2,          0,    0.0,         0, 3,          0,    0.0,         0
"SCN_CN12_9050_CEI099", 13.8, 1,          0,    0.0,         0, 2,          0,    0.0,         0, 3,          0,    0.0,         0
"SCN_CN12_9048_CEI099", 13.8, 1,          0,    0.0,         0, 2,          0,    0.0,         0, 3,          0,    0.0,         0
"SCN_CN12_9047_CEI103A", 13.8, 1,          0,    0.0,         0, 2,          0,    0.0,         0, 3,          0,    0.0,         0
"SCN_CN12_9048_CEI103A", 13.8, 1,          0,    0.0,         0, 2,          0,    0.0,         0, 3,          0,    0.0,         0
"SCN_CN12_9035_CEI103A", 13.8, 1,          0,    0.0,         0, 2,          0,    0.0,         0, 3,          0,    0.0,         0
"SCN_CN12_9036_CEI103A", 13.8, 1,          0,    0.0,         0, 2,          0,    0.0,         0, 3,          0,    0.0,         0
"SCN_CN12_9024_CEI103A", 13.8, 1,          0,    0.0,         0, 2,          0,    0.0,         0, 3,          0,    0.0,         0
"SCN_CN12_9023_CEI103A", 13.8, 1,          0,    0.0,         0, 2,          0,    0.0,         0, 3,          0,    0.0,         0
"SCN_CN12_9012_CEI100", 13.8, 1,          0,    0.0,         0, 2,          0,    0.0,         0, 3,          0,    0.0,         0
"SCN_CN12_9065_CEI100", 13.8, 1,          0,    0.0,         0, 2,          0,    0.0,         0, 3,          0,    0.0,         0
"SCN_CN12_9059_CEI096", 13.8, 1,          0,    0.0,         0, 2,          0,    0.0,         0, 3,          0,    0.0,         0
"SCN_CN12_9060_CEI096", 13.8, 1,          0,    0.0,         0, 2,          0,    0.0,         0, 3,          0,    0.0,         0
"SCN_CN12_9061_CEI096", 13.8, 1,          0,    0.0,         0, 2,          0,    0.0,         0, 3,          0,    0.0,         0
"SCN_CN12_9062_CEI096", 13.8, 1,          0,    0.0,         0, 2,          0,    0.0,         0, 3,          0,    0.0,         0
"SCN_CN12_9063_CEI096", 13.8, 1,          0,    0.0,         0, 2,          0,    0.0,         0, 3,          0,    0.0,         0
"SCN_CN12_9064_CEI096", 13.8, 1,          0,    0.0,         0, 2,          0,    0.0,         0, 3,          0,    0.0,         0
"SCN_CN12_9028_CEI096", 13.8, 1,          0,    0.0,         0, 2,          0,    0.0,         0, 3,          0,    0.0,         0
"SCN_CN12_9124_CEI96A", 13.8, 1,          0,    0.0,         0, 2,          0,    0.0,         0, 3,          0,    0.0,         0
"SCN_CN12_9123_CEI96A", 13.8, 1,          0,    0.0,         0, 2,          0,    0.0,         0, 3,          0,    0.0,         0
"SCN_CN12_9122_CEI96A", 13.8, 1,          0,    0.0,         0, 2,          0,    0.0,         0, 3,          0,    0.0,         0
"SCN_CN12_9121_CEI96A", 13.8, 1,          0,    0.0,         0, 2,          0,    0.0,         0, 3,          0,    0.0,         0
"SCN_CN12_9120_CEI96A", 13.8, 1,          0,    0.0,         0, 2,          0,    0.0,         0, 3,          0,    0.0,         0
"SCN_CN12_9065_CEI096", 13.8, 1,          0,    0.0,         0, 2,          0,    0.0,         0, 3,          0,    0.0,         0
"SCN_CN12_9099_CEI96A", 13.8, 1,          0,    0.0,         0, 2,          0,    0.0,         0, 3,          0,    0.0,         0
"SCN_CN12_9100_CEI96A", 13.8, 1,          0,    0.0,         0, 2,          0,    0.0,         0, 3,          0,    0.0,         0
"SCN_CN12_9098_CEI96A", 13.8, 1,          0,    0.0,         0, 2,          0,    0.0,         0, 3,          0,    0.0,         0
"SCN_CN12_9097_CEI96A", 13.8, 1,          0,    0.0,         0, 2,          0,    0.0,         0, 3,          0,    0.0,         0
"SCN_CN12_9096_CEI96A", 13.8, 1,          0,    0.0,         0, 2,          0,    0.0,         0, 3,          0,    0.0,         0
"SCN_CN12_9066_CEI096", 13.8, 1,          0,    0.0,         0, 2,          0,    0.0,         0, 3,          0,    0.0,         0
"SCN_CN12_9067_CEI096", 13.8, 1,          0,    0.0,         0, 2,          0,    0.0,         0, 3,          0,    0.0,         0
"SCN_CN12_9078_CEI96A", 13.8, 1,          0,    0.0,         0, 2,          0,    0.0,         0, 3,          0,    0.0,         0
"SCN_CN12_9079_CEI96A", 13.8, 1,          0,    0.0,         0, 2,          0,    0.0,         0, 3,          0,    0.0,         0
"SCN_CN12_9077_CEI96A", 13.8, 1,          0,    0.0,         0, 2,          0,    0.0,         0, 3,          0,    0.0,         0
"SCN_CN12_9076_CEI96A", 13.8, 1,          0,    0.0,         0, 2,          0,    0.0,         0, 3,          0,    0.0,         0
"SCN_CN12_9075_CEI96A", 13.8, 1,          0,    0.0,         0, 2,          0,    0.0,         0, 3,          0,    0.0,         0
"SCN_CN12_9068_CEI096", 13.8, 1,          0,    0.0,         0, 2,          0,    0.0,         0, 3,          0,    0.0,         0
"SCN_CN12_9069_CEI096", 13.8, 1,          0,    0.0,         0, 2,          0,    0.0,         0, 3,          0,    0.0,         0
"SCN_CN12_9036_CEI096", 13.8, 1,          0,    0.0,         0, 2,          0,    0.0,         0, 3,          0,    0.0,         0
"SCN_CN12_9064_CEI96A", 13.8, 1,          0,    0.0,         0, 2,          0,    0.0,         0, 3,          0,    0.0,         0
"SCN_CN12_9063_CEI96A", 13.8, 1,          0,    0.0,         0, 2,          0,    0.0,         0, 3,          0,    0.0,         0
"SCN_CN12_9062_CEI96A", 13.8, 1,          0,    0.0,         0, 2,          0,    0.0,         0, 3,          0,    0.0,         0
"SCN_CN12_9061_CEI96A", 13.8, 1,          0,    0.0,         0, 2,          0,    0.0,         0, 3,          0,    0.0,         0
"SCN_CN12_9060_CEI96A", 13.8, 1,          0,    0.0,         0, 2,          0,    0.0,         0, 3,          0,    0.0,         0
"SCN_CN12_9070_CEI096", 13.8, 1,          0,    0.0,         0, 2,          0,    0.0,         0, 3,          0,    0.0,         0
"SCN_CN12_9108_CEI096", 13.8, 1,          0,    0.0,         0, 2,          0,    0.0,         0, 3,          0,    0.0,         0
"SCN_CN12_9109_CEI096", 13.8, 1,          0,    0.0,         0, 2,          0,    0.0,         0, 3,          0,    0.0,         0
"SCN_CN12_9107_CEI096", 13.8, 1,          0,    0.0,         0, 2,          0,    0.0,         0, 3,          0,    0.0,         0
"SCN_CN12_9106_CEI096", 13.8, 1,          0,    0.0,         0, 2,          0,    0.0,         0, 3,          0,    0.0,         0
"SCN_CN12_9105_CEI096", 13.8, 1,          0,    0.0,         0, 2,          0,    0.0,         0, 3,          0,    0.0,         0
"SCN_CN12_9096_CEI092", 13.8, 1,          0,    0.0,         0, 2,          0,    0.0,         0, 3,          0,    0.0,         0
"SCN_CN12_9107_CEI092", 13.8, 1,          0,    0.0,         0, 2,          0,    0.0,         0, 3,          0,    0.0,         0
"SCN_CN12_9024_CEI084", 13.8, 1,          0,    0.0,         0, 2,          0,    0.0,         0, 3,          0,    0.0,         0
"SCN_CN12_9030_CEI84A", 13.8, 1,          0,    0.0,         0, 2,          0,    0.0,         0, 3,          0,    0.0,         0
"SCN_CN12_9034_CEI84A", 13.8, 1,          0,    0.0,         0, 2,          0,    0.0,         0, 3,          0,    0.0,         0
"SCN_CN12_9040_CEI84A", 13.8, 1,          0,    0.0,         0, 2,          0,    0.0,         0, 3,          0,    0.0,         0
"SCN_CN12_9047_CEI84A", 13.8, 1,          0,    0.0,         0, 2,          0,    0.0,         0, 3,          0,    0.0,         0
"SCN_CN12_9055_CEI84A", 13.8, 1,          0,    0.0,         0, 2,          0,    0.0,         0, 3,          0,    0.0,         0
"SCN_CN12_9056_CEI084", 13.8, 1,          0,    0.0,         0, 2,          0,    0.0,         0, 3,          0,    0.0,         0
"SCN_CN12_9168_CEIRJ001_ATV", 13.8, 1,          0,    0.0,         0, 2,          0,    0.0,         0, 3,          0,    0.0,         0
"SCN_CN12_9167_CEIRJ001_ATV", 13.8, 1,          0,    0.0,         0, 2,          0,    0.0,         0, 3,          0,    0.0,         0
"SCN_CN12_9166_CEIRJ001_ATV", 13.8, 1,          0,    0.0,         0, 2,          0,    0.0,         0, 3,          0,    0.0,         0
"SCN_CN12_9169_CEIRJ001_ATV", 13.8, 1,          0,    0.0,         0, 2,          0,    0.0,         0, 3,          0,    0.0,         0
"SCN_CN12_9170_CEIRJ001_ATV", 13.8, 1,          0,    0.0,         0, 2,          0,    0.0,         0, 3,          0,    0.0,         0
"SCN_CN12_9171_CEIRJ001_ATV", 13.8, 1,          0,    0.0,         0, 2,          0,    0.0,         0, 3,          0,    0.0,         0
"SCN_CN12_9172_CEIRJ001_ATV", 13.8, 1,          0,    0.0,         0, 2,          0,    0.0,         0, 3,          0,    0.0,         0
"SCN_CN12_9173_CEIRJ001_ATV", 13.8, 1,          0,    0.0,         0, 2,          0,    0.0,         0, 3,          0,    0.0,         0
"SCN_CN12_9162_CEI094", 13.8, 1,          0,    0.0,         0, 2,          0,    0.0,         0, 3,          0,    0.0,         0
"SCN_CN12_9163_CEI094", 13.8, 1,          0,    0.0,         0, 2,          0,    0.0,         0, 3,          0,    0.0,         0
"SCN_CN12_9161_CEI094", 13.8, 1,          0,    0.0,         0, 2,          0,    0.0,         0, 3,          0,    0.0,         0
"SCN_CN12_9160_CEI094", 13.8, 1,          0,    0.0,         0, 2,          0,    0.0,         0, 3,          0,    0.0,         0
"SCN_CN12_9108_CEI099", 13.8, 1,          0,    0.0,         0, 2,          0,    0.0,         0, 3,          0,    0.0,         0
"SCN_CN12_9107_CEI099", 13.8, 1,          0,    0.0,         0, 2,          0,    0.0,         0, 3,          0,    0.0,         0
"SCN_CN12_9090_CEI099", 13.8, 1,          0,    0.0,         0, 2,          0,    0.0,         0, 3,          0,    0.0,         0
"SCN_CN12_9089_CEI099", 13.8, 1,          0,    0.0,         0, 2,          0,    0.0,         0, 3,          0,    0.0,         0
"SCN_CN12_9074_CEI099", 13.8, 1,          0,    0.0,         0, 2,          0,    0.0,         0, 3,          0,    0.0,         0
"SCN_CN12_9023_CEIRJ008_ATV", 13.8, 1,          0,    0.0,         0, 2,          0,    0.0,         0, 3,          0,    0.0,         0
"SCN_CN12_9069_CEI099", 13.8, 1,          0,    0.0,         0, 2,          0,    0.0,         0, 3,          0,    0.0,         0
"SCN_CN12_9068_CEI099", 13.8, 1,          0,    0.0,         0, 2,          0,    0.0,         0, 3,          0,    0.0,         0
"SCN_CN12_9063_CEI099", 13.8, 1,          0,    0.0,         0, 2,          0,    0.0,         0, 3,          0,    0.0,         0
"SCN_CN12_9076_CEI098", 13.8, 1,          0,    0.0,         0, 2,          0,    0.0,         0, 3,          0,    0.0,         0
"SCN_CN12_9071_CEI098", 13.8, 1,          0,    0.0,         0, 2,          0,    0.0,         0, 3,          0,    0.0,         0
"SCN_CN12_9070_CEI098", 13.8, 1,          0,    0.0,         0, 2,          0,    0.0,         0, 3,          0,    0.0,         0
"SCN_CN12_9060_CEI098", 13.8, 1,          0,    0.0,         0, 2,          0,    0.0,         0, 3,          0,    0.0,         0
"SCN_CN12_9061_CEI098", 13.8, 1,          0,    0.0,         0, 2,          0,    0.0,         0, 3,          0,    0.0,         0
"SCN_CN12_9046_CEI098", 13.8, 1,          0,    0.0,         0, 2,          0,    0.0,         0, 3,          0,    0.0,         0
"SCN_CN12_9045_CEI098", 13.8, 1,          0,    0.0,         0, 2,          0,    0.0,         0, 3,          0,    0.0,         0
"SCN_CN12_9035_CEI098", 13.8, 1,          0,    0.0,         0, 2,          0,    0.0,         0, 3,          0,    0.0,         0
"SCN_CN12_9036_CEI098", 13.8, 1,          0,    0.0,         0, 2,          0,    0.0,         0, 3,          0,    0.0,         0
"SCN_CN12_9022_CEI098", 13.8, 1,          0,    0.0,         0, 2,          0,    0.0,         0, 3,          0,    0.0,         0
"SCN_CN12_9020_CEI098", 13.8, 1,          0,    0.0,         0, 2,          0,    0.0,         0, 3,          0,    0.0,         0
"SCN_CN12_9011_CEI098", 13.8, 1,          0,    0.0,         0, 2,          0,    0.0,         0, 3,          0,    0.0,         0
"SCN_CN12_9012_CEI098_S", 13.8, 1,          0,    0.0,         0, 2,          0,    0.0,         0, 3,          0,    0.0,         0
"SCN_CN12_9001_CEI098", 13.8, 1,          0,    0.0,         0, 2,          0,    0.0,         0, 3,          0,    0.0,         0
"SCN_CN12_9012_CEI098", 13.8, 1,          0,    0.0,         0, 2,          0,    0.0,         0, 3,          0,    0.0,         0
"SCN_CN12_9001_CEI097", 13.8, 1,          0,    0.0,         0, 2,          0,    0.0,         0, 3,          0,    0.0,         0
"SCN_CN12_9002_CEI097", 13.8, 1,          0,    0.0,         0, 2,          0,    0.0,         0, 3,          0,    0.0,         0
"SCN_CN12_9003_CEI097", 13.8, 1,          0,    0.0,         0, 2,          0,    0.0,         0, 3,          0,    0.0,         0
"SCN_CN12_9004_CEI097", 13.8, 1,          0,    0.0,         0, 2,          0,    0.0,         0, 3,          0,    0.0,         0
"SCN_CN12_9005_CEI097", 13.8, 1,          0,    0.0,         0, 2,          0,    0.0,         0, 3,          0,    0.0,         0
"SCN_CN12_9006_CEI097", 13.8, 1,          0,    0.0,         0, 2,          0,    0.0,         0, 3,          0,    0.0,         0
"SCN_CN12_9007_CEI097_S", 13.8, 1,          0,    0.0,         0, 2,          0,    0.0,         0, 3,          0,    0.0,         0
"SCN_CN12_9007_CEI097", 13.8, 1,          0,    0.0,         0, 2,          0,    0.0,         0, 3,          0,    0.0,         0
"SCN_CN12_9008_CEI097", 13.8, 1,          0,    0.0,         0, 2,          0,    0.0,         0, 3,          0,    0.0,         0
"SCN_CN12_9009_CEI097", 13.8, 1,          0,    0.0,         0, 2,          0,    0.0,         0, 3,          0,    0.0,         0
"SCN_CN12_9010_CEI097", 13.8, 1,          0,    0.0,         0, 2,          0,    0.0,         0, 3,          0,    0.0,         0
"SCN_CN12_9011_CEI097", 13.8, 1,          0,    0.0,         0, 2,          0,    0.0,         0, 3,          0,    0.0,         0
"SCN_CN12_9012_CEI097", 13.8, 1,          0,    0.0,         0, 2,          0,    0.0,         0, 3,          0,    0.0,         0
"SCN_CN12_9013_CEI097", 13.8, 1,          0,    0.0,         0, 2,          0,    0.0,         0, 3,          0,    0.0,         0
"SCN_CN12_9062_CEI103", 13.8, 1,          0,    0.0,         0, 2,          0,    0.0,         0, 3,          0,    0.0,         0
"SCN_CN12_9061_CEI103", 13.8, 1,          0,    0.0,         0, 2,          0,    0.0,         0, 3,          0,    0.0,         0
"SCN_CN12_9013_CEI099_S", 13.8, 1,          0,    0.0,         0, 2,          0,    0.0,         0, 3,          0,    0.0,         0
"SCN_CN12_9014_CEI099", 13.8, 1,          0,    0.0,         0, 2,          0,    0.0,         0, 3,          0,    0.0,         0
"SCN_CN12_9005_CEI103", 13.8, 1,          0,    0.0,         0, 2,          0,    0.0,         0, 3,          0,    0.0,         0
"SCN_CN12_9003_CEI103", 13.8, 1,          0,    0.0,         0, 2,          0,    0.0,         0, 3,          0,    0.0,         0
"SCN_CN12_9002_CEI103", 13.8, 1,          0,    0.0,         0, 2,          0,    0.0,         0, 3,          0,    0.0,         0
"SCN_CN12_9031_CEI099", 13.8, 1,          0,    0.0,         0, 2,          0,    0.0,         0, 3,          0,    0.0,         0
"SCN_CN12_9093_CEI094", 13.8, 1,          0,    0.0,         0, 2,          0,    0.0,         0, 3,          0,    0.0,         0
"SCN_CN12_9092_CEI094", 13.8, 1,          0,    0.0,         0, 2,          0,    0.0,         0, 3,          0,    0.0,         0
"SCN_CN12_9094_CEI094", 13.8, 1,          0,    0.0,         0, 2,          0,    0.0,         0, 3,          0,    0.0,         0
"SCN_CN12_9058_CEI094", 13.8, 1,          0,    0.0,         0, 2,          0,    0.0,         0, 3,          0,    0.0,         0
"SCN_CN12_9356_CEI068", 13.8, 1,    7965.92,    0.0,   0.99981, 2,    7965.92, -120.0,   0.99981, 3,    7965.92,  120.0,   0.99981
"SCN_CN12_9357_CEI068", 13.8, 1,    7965.92,    0.0,   0.99981, 2,    7965.92, -120.0,   0.99981, 3,    7965.92,  120.0,   0.99981
"SCN_CN12_9355_CEI068", 13.8, 1,    7965.92,    0.0,   0.99981, 2,    7965.92, -120.0,   0.99981, 3,    7965.92,  120.0,   0.99981
"SCN_CN12_9354_CEI068", 13.8, 1,    7965.92,    0.0,   0.99981, 2,    7965.92, -120.0,   0.99981, 3,    7965.92,  120.0,   0.99981
"SCN_CN12_9297_CEI068", 13.8, 1,     7966.5,    0.0,   0.99988, 2,     7966.5, -120.0,   0.99988, 3,     7966.5,  120.0,   0.99988
"SCN_CN12_9298_CEI068", 13.8, 1,    7966.54,    0.0,   0.99989, 2,    7966.54, -120.0,   0.99989, 3,    7966.54,  120.0,   0.99989
"SCN_CN12_9318_CEI065", 13.8, 1,    7967.21,    0.0,   0.99997, 2,    7967.21, -120.0,   0.99997, 3,    7967.21,  120.0,   0.99997
"SCN_CN12_9319_CEI065", 13.8, 1,    7967.26,    0.0,   0.99998, 2,    7967.26, -120.0,   0.99998, 3,    7967.26,  120.0,   0.99998
"SCN_CN12_9038_CEI099", 13.8, 1,          0,    0.0,         0, 2,          0,    0.0,         0, 3,          0,    0.0,         0
"SCN_CN12_9077_CEI094", 13.8, 1,          0,    0.0,         0, 2,          0,    0.0,         0, 3,          0,    0.0,         0
"SCN_CN12_9078_CEI094", 13.8, 1,          0,    0.0,         0, 2,          0,    0.0,         0, 3,          0,    0.0,         0
"SCN_CN12_9039_CEI97A", 13.8, 1,          0,    0.0,         0, 2,          0,    0.0,         0, 3,          0,    0.0,         0
"SCN_CN12_9037_CEI97A", 13.8, 1,          0,    0.0,         0, 2,          0,    0.0,         0, 3,          0,    0.0,         0
"SCN_CN12_9036_CEI97A", 13.8, 1,          0,    0.0,         0, 2,          0,    0.0,         0, 3,          0,    0.0,         0
"SCN_CN12_9090_CEI094", 13.8, 1,          0,    0.0,         0, 2,          0,    0.0,         0, 3,          0,    0.0,         0
"SCN_CN12_9091_CEI094", 13.8, 1,          0,    0.0,         0, 2,          0,    0.0,         0, 3,          0,    0.0,         0
"SCN_CN12_9090_CEI094_S", 13.8, 1,          0,    0.0,         0, 2,          0,    0.0,         0, 3,          0,    0.0,         0
"SCN_CN12_9089_CEI098", 13.8, 1,          0,    0.0,         0, 2,          0,    0.0,         0, 3,          0,    0.0,         0
"SCN_CN12_9090_CEI098", 13.8, 1,          0,    0.0,         0, 2,          0,    0.0,         0, 3,          0,    0.0,         0
"SCN_CN12_9158_CEIRJ001_ATV", 13.8, 1,          0,    0.0,         0, 2,          0,    0.0,         0, 3,          0,    0.0,         0
"SCN_CN12_9159_CEIRJ001_ATV", 13.8, 1,          0,    0.0,         0, 2,          0,    0.0,         0, 3,          0,    0.0,         0
"SCN_CN12_9160_CEIRJ001_ATV", 13.8, 1,          0,    0.0,         0, 2,          0,    0.0,         0, 3,          0,    0.0,         0
"SCN_CN12_9161_CEIRJ001_ATV", 13.8, 1,          0,    0.0,         0, 2,          0,    0.0,         0, 3,          0,    0.0,         0
"SCN_CN12_9010_CEI102", 13.8, 1,          0,    0.0,         0, 2,          0,    0.0,         0, 3,          0,    0.0,         0
"SCN_CN12_9044_CEI054", 13.8, 1,    7964.46,    0.0,   0.99963, 2,    7964.46, -120.0,   0.99963, 3,    7964.46,  120.0,   0.99963
"SCN_CN12_9037_CEI062", 13.8, 1,    7964.46,    0.0,   0.99963, 2,    7964.46, -120.0,   0.99963, 3,    7964.46,  120.0,   0.99963
"SCN_CN12_9073_CEI053", 13.8, 1,    7964.47,    0.0,   0.99963, 2,    7964.47, -120.0,   0.99963, 3,    7964.47,  120.0,   0.99963
"SCN_CN12_9074_CEI053", 13.8, 1,    7964.47,    0.0,   0.99963, 2,    7964.48, -120.0,   0.99963, 3,    7964.48,  120.0,   0.99963
"SCN_CN12_9075_CEI053", 13.8, 1,    7964.48,    0.0,   0.99963, 2,    7964.48, -120.0,   0.99963, 3,    7964.48,  120.0,   0.99963
"SCN_CN12_9076_CEI053", 13.8, 1,    7964.49,    0.0,   0.99963, 2,    7964.49, -120.0,   0.99963, 3,    7964.49,  120.0,   0.99963
"SCN_CN12_9077_CEI053", 13.8, 1,     7964.5,    0.0,   0.99963, 2,     7964.5, -120.0,   0.99963, 3,     7964.5,  120.0,   0.99963
"SCN_CN12_9078_CEI053", 13.8, 1,    7964.51,    0.0,   0.99963, 2,    7964.51, -120.0,   0.99963, 3,    7964.51,  120.0,   0.99963
"SCN_CN12_9078_CEI053_S", 13.8, 1,    7964.51,    0.0,   0.99963, 2,    7964.51, -120.0,   0.99963, 3,    7964.51,  120.0,   0.99963
"SCN_CN12_9079_CEI053", 13.8, 1,    7964.52,    0.0,   0.99963, 2,    7964.52, -120.0,   0.99963, 3,    7964.52,  120.0,   0.99963
"SCN_CN12_9080_CEI053", 13.8, 1,    7964.53,    0.0,   0.99964, 2,    7964.53, -120.0,   0.99964, 3,    7964.53,  120.0,   0.99964
"SCN_CN12_9081_CEI053", 13.8, 1,    7964.54,    0.0,   0.99964, 2,    7964.54, -120.0,   0.99964, 3,    7964.54,  120.0,   0.99964
"SCN_CN12_9082_CEI053", 13.8, 1,    7964.54,    0.0,   0.99964, 2,    7964.54, -120.0,   0.99964, 3,    7964.54,  120.0,   0.99964
"SCN_CN12_9083_CEI053", 13.8, 1,    7964.55,    0.0,   0.99964, 2,    7964.55, -120.0,   0.99964, 3,    7964.55,  120.0,   0.99964
"SCN_CN12_9084_CEI053", 13.8, 1,    7964.55,    0.0,   0.99964, 2,    7964.55, -120.0,   0.99964, 3,    7964.55,  120.0,   0.99964
"SCN_CN12_9274_CEI053", 13.8, 1,    7964.55,    0.0,   0.99964, 2,    7964.55, -120.0,   0.99964, 3,    7964.55,  120.0,   0.99964
"SCN_CN12_9340_CEI054", 13.8, 1,          0,    0.0,         0, 2,          0,    0.0,         0, 3,          0,    0.0,         0
"SCN_CN12_9341_CEI054", 13.8, 1,          0,    0.0,         0, 2,          0,    0.0,         0, 3,          0,    0.0,         0
"SCN_CN12_CEI_FL_MT_1271", 13.8, 1,          0,    0.0,         0, 2,          0,    0.0,         0, 3,          0,    0.0,         0
"SCN_CN12_9042_CEI280_ATV", 13.8, 1,          0,    0.0,         0, 2,          0,    0.0,         0, 3,          0,    0.0,         0
"SCN_CN12_9030_CEI033", 13.8, 1,          0,    0.0,         0, 2,          0,    0.0,         0, 3,          0,    0.0,         0
"SCN_CN12_9029_CEI033", 13.8, 1,          0,    0.0,         0, 2,          0,    0.0,         0, 3,          0,    0.0,         0
"SCN_CN12_9028_CEI033", 13.8, 1,          0,    0.0,         0, 2,          0,    0.0,         0, 3,          0,    0.0,         0
"SCN_CN12_9027_CEI033", 13.8, 1,          0,    0.0,         0, 2,          0,    0.0,         0, 3,          0,    0.0,         0
"SCN_CN12_9026_CEI033", 13.8, 1,          0,    0.0,         0, 2,          0,    0.0,         0, 3,          0,    0.0,         0
"SCN_CN12_9025_CEI033", 13.8, 1,          0,    0.0,         0, 2,          0,    0.0,         0, 3,          0,    0.0,         0
"SCN_CN12_9024_CEI033", 13.8, 1,          0,    0.0,         0, 2,          0,    0.0,         0, 3,          0,    0.0,         0
"SCN_CN12_9023_CEI033", 13.8, 1,          0,    0.0,         0, 2,          0,    0.0,         0, 3,          0,    0.0,         0
"SCN_CN12_9022_CEI033", 13.8, 1,          0,    0.0,         0, 2,          0,    0.0,         0, 3,          0,    0.0,         0
"SCN_CN12_9021_CEI033", 13.8, 1,          0,    0.0,         0, 2,          0,    0.0,         0, 3,          0,    0.0,         0
"SCN_CN12_9020_CEI033", 13.8, 1,          0,    0.0,         0, 2,          0,    0.0,         0, 3,          0,    0.0,         0
"SCN_CN12_9019_CEI033", 13.8, 1,          0,    0.0,         0, 2,          0,    0.0,         0, 3,          0,    0.0,         0
"SCN_CN12_9343_CEI054", 13.8, 1,          0,    0.0,         0, 2,          0,    0.0,         0, 3,          0,    0.0,         0
"SCN_CN12_9122_CEI091_S", 13.8, 1,          0,    0.0,         0, 2,          0,    0.0,         0, 3,          0,    0.0,         0
"SCN_CN12_9160_CEI091", 13.8, 1,          0,    0.0,         0, 2,          0,    0.0,         0, 3,          0,    0.0,         0
"SCN_CN12_9122_CEI091", 13.8, 1,          0,    0.0,         0, 2,          0,    0.0,         0, 3,          0,    0.0,         0
"SCN_CN12_9086_CEI091", 13.8, 1,          0,    0.0,         0, 2,          0,    0.0,         0, 3,          0,    0.0,         0
"SCN_CN12_9085_CEI091", 13.8, 1,          0,    0.0,         0, 2,          0,    0.0,         0, 3,          0,    0.0,         0
"SCN_CN12_9121_CEI091", 13.8, 1,          0,    0.0,         0, 2,          0,    0.0,         0, 3,          0,    0.0,         0
"SCN_CN12_9120_CEI091", 13.8, 1,          0,    0.0,         0, 2,          0,    0.0,         0, 3,          0,    0.0,         0
"SCN_CN12_9119_CEI091", 13.8, 1,          0,    0.0,         0, 2,          0,    0.0,         0, 3,          0,    0.0,         0
"SCN_CN12_9118_CEI091", 13.8, 1,          0,    0.0,         0, 2,          0,    0.0,         0, 3,          0,    0.0,         0
"SCN_CN12_9114_CEI091", 13.8, 1,          0,    0.0,         0, 2,          0,    0.0,         0, 3,          0,    0.0,         0
"SCN_CN12_9113_CEI091", 13.8, 1,          0,    0.0,         0, 2,          0,    0.0,         0, 3,          0,    0.0,         0
"SCN_CN12_9112_CEI091", 13.8, 1,          0,    0.0,         0, 2,          0,    0.0,         0, 3,          0,    0.0,         0
"SCN_CN12_9108_CEI091", 13.8, 1,          0,    0.0,         0, 2,          0,    0.0,         0, 3,          0,    0.0,         0
"SCN_CN12_9107_CEI091", 13.8, 1,          0,    0.0,         0, 2,          0,    0.0,         0, 3,          0,    0.0,         0
"SCN_CN12_9103_CEI091", 13.8, 1,          0,    0.0,         0, 2,          0,    0.0,         0, 3,          0,    0.0,         0
"SCN_CN12_9102_CEI091", 13.8, 1,          0,    0.0,         0, 2,          0,    0.0,         0, 3,          0,    0.0,         0
"SCN_CN12_9101_CEI091", 13.8, 1,          0,    0.0,         0, 2,          0,    0.0,         0, 3,          0,    0.0,         0
"SCN_CN12_9096_CEI091", 13.8, 1,          0,    0.0,         0, 2,          0,    0.0,         0, 3,          0,    0.0,         0
"SCN_CN12_9097_CEI091", 13.8, 1,          0,    0.0,         0, 2,          0,    0.0,         0, 3,          0,    0.0,         0
"SCN_CN12_9009_CEI091", 13.8, 1,          0,    0.0,         0, 2,          0,    0.0,         0, 3,          0,    0.0,         0
"SCN_CN12_9006_CEI091", 13.8, 1,          0,    0.0,         0, 2,          0,    0.0,         0, 3,          0,    0.0,         0
"SCN_CN12_9062_CEI095", 13.8, 1,          0,    0.0,         0, 2,          0,    0.0,         0, 3,          0,    0.0,         0
"SCN_CN12_9061_CEI095", 13.8, 1,          0,    0.0,         0, 2,          0,    0.0,         0, 3,          0,    0.0,         0
"SCN_CN12_9060_CEI095", 13.8, 1,          0,    0.0,         0, 2,          0,    0.0,         0, 3,          0,    0.0,         0
"SCN_CN12_9067_CEI095", 13.8, 1,          0,    0.0,         0, 2,          0,    0.0,         0, 3,          0,    0.0,         0
"SCN_CN12_9161_CEI091", 13.8, 1,          0,    0.0,         0, 2,          0,    0.0,         0, 3,          0,    0.0,         0
"SCN_CN12_9165_CEI091", 13.8, 1,          0,    0.0,         0, 2,          0,    0.0,         0, 3,          0,    0.0,         0
"SCN_CN12_9166_CEI091", 13.8, 1,          0,    0.0,         0, 2,          0,    0.0,         0, 3,          0,    0.0,         0
"SCN_CN12_9167_CEI091", 13.8, 1,          0,    0.0,         0, 2,          0,    0.0,         0, 3,          0,    0.0,         0
"SCN_CN12_9168_CEI091", 13.8, 1,          0,    0.0,         0, 2,          0,    0.0,         0, 3,          0,    0.0,         0
"SCN_CN12_9169_CEI091", 13.8, 1,          0,    0.0,         0, 2,          0,    0.0,         0, 3,          0,    0.0,         0
"SCN_CN12_9154_CEI091", 13.8, 1,          0,    0.0,         0, 2,          0,    0.0,         0, 3,          0,    0.0,         0
"SCN_CN12_9153_CEI091", 13.8, 1,          0,    0.0,         0, 2,          0,    0.0,         0, 3,          0,    0.0,         0
"SCN_CN12_9148_CEI091", 13.8, 1,          0,    0.0,         0, 2,          0,    0.0,         0, 3,          0,    0.0,         0
"SCN_CN12_9144_CEI091", 13.8, 1,          0,    0.0,         0, 2,          0,    0.0,         0, 3,          0,    0.0,         0
"SCN_CN12_9171_CEI091", 13.8, 1,          0,    0.0,         0, 2,          0,    0.0,         0, 3,          0,    0.0,         0
"SCN_CN12_9172_CEI091", 13.8, 1,          0,    0.0,         0, 2,          0,    0.0,         0, 3,          0,    0.0,         0
"SCN_CN12_9001_CEI092", 13.8, 1,          0,    0.0,         0, 2,          0,    0.0,         0, 3,          0,    0.0,         0
"SCN_CN12_9003_CEI092", 13.8, 1,          0,    0.0,         0, 2,          0,    0.0,         0, 3,          0,    0.0,         0
"SCN_CN12_9006_CEI092", 13.8, 1,          0,    0.0,         0, 2,          0,    0.0,         0, 3,          0,    0.0,         0
"SCN_CN12_9099_CEI092_S", 13.8, 1,          0,    0.0,         0, 2,          0,    0.0,         0, 3,          0,    0.0,         0
"SCN_CN12_9098_CEI092", 13.8, 1,          0,    0.0,         0, 2,          0,    0.0,         0, 3,          0,    0.0,         0
"SCN_CN12_9099_CEI092", 13.8, 1,          0,    0.0,         0, 2,          0,    0.0,         0, 3,          0,    0.0,         0
"SCN_CN12_9097_CEI092", 13.8, 1,          0,    0.0,         0, 2,          0,    0.0,         0, 3,          0,    0.0,         0
"SCN_CN12_9106_CEI092", 13.8, 1,          0,    0.0,         0, 2,          0,    0.0,         0, 3,          0,    0.0,         0
"SCN_CN12_9095_CEI092", 13.8, 1,          0,    0.0,         0, 2,          0,    0.0,         0, 3,          0,    0.0,         0
"SCN_CN12_9008_CEI092_S", 13.8, 1,          0,    0.0,         0, 2,          0,    0.0,         0, 3,          0,    0.0,         0
"SCN_CN12_9009_CEI092", 13.8, 1,          0,    0.0,         0, 2,          0,    0.0,         0, 3,          0,    0.0,         0
"SCN_CN12_9010_CEI092", 13.8, 1,          0,    0.0,         0, 2,          0,    0.0,         0, 3,          0,    0.0,         0
"SCN_CN12_9011_CEI092", 13.8, 1,          0,    0.0,         0, 2,          0,    0.0,         0, 3,          0,    0.0,         0
"SCN_CN12_9094_CEI092", 13.8, 1,          0,    0.0,         0, 2,          0,    0.0,         0, 3,          0,    0.0,         0
"SCN_CN12_9087_CEI092", 13.8, 1,          0,    0.0,         0, 2,          0,    0.0,         0, 3,          0,    0.0,         0
"SCN_CN12_9086_CEI092", 13.8, 1,          0,    0.0,         0, 2,          0,    0.0,         0, 3,          0,    0.0,         0
"SCN_CN12_9079_CEI092", 13.8, 1,          0,    0.0,         0, 2,          0,    0.0,         0, 3,          0,    0.0,         0
"SCN_CN12_9080_CEI092", 13.8, 1,          0,    0.0,         0, 2,          0,    0.0,         0, 3,          0,    0.0,         0
"SCN_CN12_9081_CEI092", 13.8, 1,          0,    0.0,         0, 2,          0,    0.0,         0, 3,          0,    0.0,         0
"SCN_CN12_9082_CEI092", 13.8, 1,          0,    0.0,         0, 2,          0,    0.0,         0, 3,          0,    0.0,         0
"SCN_CN12_9002_CEI093", 13.8, 1,          0,    0.0,         0, 2,          0,    0.0,         0, 3,          0,    0.0,         0
"SCN_CN12_9001_CEI093", 13.8, 1,          0,    0.0,         0, 2,          0,    0.0,         0, 3,          0,    0.0,         0
"SCN_CN12_9003_CEI093", 13.8, 1,          0,    0.0,         0, 2,          0,    0.0,         0, 3,          0,    0.0,         0
"SCN_CN12_9004_CEI093", 13.8, 1,          0,    0.0,         0, 2,          0,    0.0,         0, 3,          0,    0.0,         0
"SCN_CN12_9004_CEI093_S", 13.8, 1,          0,    0.0,         0, 2,          0,    0.0,         0, 3,          0,    0.0,         0
"SCN_CN12_9005_CEI093", 13.8, 1,          0,    0.0,         0, 2,          0,    0.0,         0, 3,          0,    0.0,         0
"SCN_CN12_9006_CEI093", 13.8, 1,          0,    0.0,         0, 2,          0,    0.0,         0, 3,          0,    0.0,         0
"SCN_CN12_9007_CEI093", 13.8, 1,          0,    0.0,         0, 2,          0,    0.0,         0, 3,          0,    0.0,         0
"SCN_CN12_9008_CEI093", 13.8, 1,          0,    0.0,         0, 2,          0,    0.0,         0, 3,          0,    0.0,         0
"SCN_CN12_9010_CEI093", 13.8, 1,          0,    0.0,         0, 2,          0,    0.0,         0, 3,          0,    0.0,         0
"SCN_CN12_9011_CEI093", 13.8, 1,          0,    0.0,         0, 2,          0,    0.0,         0, 3,          0,    0.0,         0
"SCN_CN12_9021_CEI093", 13.8, 1,          0,    0.0,         0, 2,          0,    0.0,         0, 3,          0,    0.0,         0
"SCN_CN12_9012_CEI093", 13.8, 1,          0,    0.0,         0, 2,          0,    0.0,         0, 3,          0,    0.0,         0
"SCN_CN12_9013_CEI093", 13.8, 1,          0,    0.0,         0, 2,          0,    0.0,         0, 3,          0,    0.0,         0
"SCN_CN12_9014_CEI093", 13.8, 1,          0,    0.0,         0, 2,          0,    0.0,         0, 3,          0,    0.0,         0
"SCN_CN12_9015_CEI093", 13.8, 1,          0,    0.0,         0, 2,          0,    0.0,         0, 3,          0,    0.0,         0
"SCN_CN12_9026_CEI092", 13.8, 1,          0,    0.0,         0, 2,          0,    0.0,         0, 3,          0,    0.0,         0
"SCN_CN12_9027_CEI092", 13.8, 1,          0,    0.0,         0, 2,          0,    0.0,         0, 3,          0,    0.0,         0
"SCN_CN12_9025_CEI092", 13.8, 1,          0,    0.0,         0, 2,          0,    0.0,         0, 3,          0,    0.0,         0
"SCN_CN12_9024_CEI092", 13.8, 1,          0,    0.0,         0, 2,          0,    0.0,         0, 3,          0,    0.0,         0
"SCN_CN12_9022_CEI092", 13.8, 1,          0,    0.0,         0, 2,          0,    0.0,         0, 3,          0,    0.0,         0
"SCN_CN12_9022_CEI093", 13.8, 1,          0,    0.0,         0, 2,          0,    0.0,         0, 3,          0,    0.0,         0
"SCN_CN12_9042_CEI093", 13.8, 1,          0,    0.0,         0, 2,          0,    0.0,         0, 3,          0,    0.0,         0
"SCN_CN12_9041_CEI093", 13.8, 1,          0,    0.0,         0, 2,          0,    0.0,         0, 3,          0,    0.0,         0
"SCN_CN12_9128_CEI093", 13.8, 1,          0,    0.0,         0, 2,          0,    0.0,         0, 3,          0,    0.0,         0
"SCN_CN12_9127_CEI093", 13.8, 1,          0,    0.0,         0, 2,          0,    0.0,         0, 3,          0,    0.0,         0
"SCN_CN12_9129_CEI093", 13.8, 1,          0,    0.0,         0, 2,          0,    0.0,         0, 3,          0,    0.0,         0
"SCN_CN12_9130_CEI093", 13.8, 1,          0,    0.0,         0, 2,          0,    0.0,         0, 3,          0,    0.0,         0
"SCN_CN12_9115_CEI093", 13.8, 1,          0,    0.0,         0, 2,          0,    0.0,         0, 3,          0,    0.0,         0
"SCN_CN12_9114_CEI093", 13.8, 1,          0,    0.0,         0, 2,          0,    0.0,         0, 3,          0,    0.0,         0
"SCN_CN12_9043_CEI093", 13.8, 1,          0,    0.0,         0, 2,          0,    0.0,         0, 3,          0,    0.0,         0
"SCN_CN12_9044_CEI093", 13.8, 1,          0,    0.0,         0, 2,          0,    0.0,         0, 3,          0,    0.0,         0
"SCN_CN12_9066_CEI093", 13.8, 1,          0,    0.0,         0, 2,          0,    0.0,         0, 3,          0,    0.0,         0
"SCN_CN12_9065_CEI093", 13.8, 1,          0,    0.0,         0, 2,          0,    0.0,         0, 3,          0,    0.0,         0
"SCN_CN12_9068_CEI093", 13.8, 1,          0,    0.0,         0, 2,          0,    0.0,         0, 3,          0,    0.0,         0
"SCN_CN12_9069_CEI093", 13.8, 1,          0,    0.0,         0, 2,          0,    0.0,         0, 3,          0,    0.0,         0
"SCN_CN12_9070_CEI093", 13.8, 1,          0,    0.0,         0, 2,          0,    0.0,         0, 3,          0,    0.0,         0
"SCN_CN12_9071_CEI093", 13.8, 1,          0,    0.0,         0, 2,          0,    0.0,         0, 3,          0,    0.0,         0
"SCN_CN12_9091_CEI093", 13.8, 1,          0,    0.0,         0, 2,          0,    0.0,         0, 3,          0,    0.0,         0
"SCN_CN12_9092_CEI093", 13.8, 1,          0,    0.0,         0, 2,          0,    0.0,         0, 3,          0,    0.0,         0
"SCN_CN12_9093_CEI093", 13.8, 1,          0,    0.0,         0, 2,          0,    0.0,         0, 3,          0,    0.0,         0
"SCN_CN12_9094_CEI093", 13.8, 1,          0,    0.0,         0, 2,          0,    0.0,         0, 3,          0,    0.0,         0
"SCN_CN12_9118_CEI093", 13.8, 1,          0,    0.0,         0, 2,          0,    0.0,         0, 3,          0,    0.0,         0
"SCN_CN12_9060_CEIRJ008_ATV", 13.8, 1,          0,    0.0,         0, 2,          0,    0.0,         0, 3,          0,    0.0,         0
"SCN_CN12_9023_CEI092", 13.8, 1,          0,    0.0,         0, 2,          0,    0.0,         0, 3,          0,    0.0,         0
"SCN_CN12_9032_CEI092", 13.8, 1,          0,    0.0,         0, 2,          0,    0.0,         0, 3,          0,    0.0,         0
"SCN_CN12_9039_CEI092", 13.8, 1,          0,    0.0,         0, 2,          0,    0.0,         0, 3,          0,    0.0,         0
"SCN_CN12_9040_CEI092", 13.8, 1,          0,    0.0,         0, 2,          0,    0.0,         0, 3,          0,    0.0,         0
"SCN_CN12_9041_CEI092", 13.8, 1,          0,    0.0,         0, 2,          0,    0.0,         0, 3,          0,    0.0,         0
"SCN_CN12_9042_CEI092", 13.8, 1,          0,    0.0,         0, 2,          0,    0.0,         0, 3,          0,    0.0,         0
"SCN_CN12_9048_CEI092", 13.8, 1,          0,    0.0,         0, 2,          0,    0.0,         0, 3,          0,    0.0,         0
"SCN_CN12_9039_CEI092_S", 13.8, 1,          0,    0.0,         0, 2,          0,    0.0,         0, 3,          0,    0.0,         0
"SCN_CN12_9049_CEI092", 13.8, 1,          0,    0.0,         0, 2,          0,    0.0,         0, 3,          0,    0.0,         0
"SCN_CN12_9050_CEI092", 13.8, 1,          0,    0.0,         0, 2,          0,    0.0,         0, 3,          0,    0.0,         0
"SCN_CN12_9051_CEI092", 13.8, 1,          0,    0.0,         0, 2,          0,    0.0,         0, 3,          0,    0.0,         0
"SCN_CN12_9059_CEI092", 13.8, 1,          0,    0.0,         0, 2,          0,    0.0,         0, 3,          0,    0.0,         0
"SCN_CN12_9049_CEI092_S", 13.8, 1,          0,    0.0,         0, 2,          0,    0.0,         0, 3,          0,    0.0,         0
"SCN_CN12_9062_CEI092", 13.8, 1,          0,    0.0,         0, 2,          0,    0.0,         0, 3,          0,    0.0,         0
"SCN_CN12_9063_CEI092", 13.8, 1,          0,    0.0,         0, 2,          0,    0.0,         0, 3,          0,    0.0,         0
"SCN_CN12_9064_CEI092", 13.8, 1,          0,    0.0,         0, 2,          0,    0.0,         0, 3,          0,    0.0,         0
"SCN_CN12_9065_CEI092", 13.8, 1,          0,    0.0,         0, 2,          0,    0.0,         0, 3,          0,    0.0,         0
"SCN_CN12_9070_CEI092", 13.8, 1,          0,    0.0,         0, 2,          0,    0.0,         0, 3,          0,    0.0,         0
"SCN_CN12_9062_CEI092_S", 13.8, 1,          0,    0.0,         0, 2,          0,    0.0,         0, 3,          0,    0.0,         0
"SCN_CN12_9071_CEI092", 13.8, 1,          0,    0.0,         0, 2,          0,    0.0,         0, 3,          0,    0.0,         0
"SCN_CN12_9078_CEI092", 13.8, 1,          0,    0.0,         0, 2,          0,    0.0,         0, 3,          0,    0.0,         0
"SCN_CN12_9358_CEI068", 13.8, 1,    7965.92,    0.0,   0.99981, 2,    7965.92, -120.0,   0.99981, 3,    7965.92,  120.0,   0.99981
"SCN_CN12_9359_CEI068", 13.8, 1,    7965.92,    0.0,   0.99981, 2,    7965.92, -120.0,   0.99981, 3,    7965.92,  120.0,   0.99981
"SCN_CN12_9360_CEI068", 13.8, 1,    7965.92,    0.0,   0.99981, 2,    7965.92, -120.0,   0.99981, 3,    7965.92,  120.0,   0.99981
"SCN_CN12_9361_CEI068", 13.8, 1,    7965.92,    0.0,   0.99981, 2,    7965.92, -120.0,   0.99981, 3,    7965.92,  120.0,   0.99981
"SCN_CN12_9362_CEI068", 13.8, 1,    7965.92,    0.0,   0.99981, 2,    7965.92, -120.0,   0.99981, 3,    7965.92,  120.0,   0.99981
"SCN_CN12_9022_CEI051", 13.8, 1,    7965.47,    0.0,   0.99975, 2,    7965.48, -120.0,   0.99975, 3,    7965.47,  120.0,   0.99975
"SCN_CN12_9025_CEI051", 13.8, 1,    7965.52,    0.0,   0.99976, 2,    7965.52, -120.0,   0.99976, 3,    7965.52,  120.0,   0.99976
"SCN_CN12_9020_CEI051", 13.8, 1,    7965.43,    0.0,   0.99975, 2,    7965.44, -120.0,   0.99975, 3,    7965.44,  120.0,   0.99975
"SCN_CN12_9018_CEI051", 13.8, 1,    7965.39,    0.0,   0.99974, 2,     7965.4, -120.0,   0.99974, 3,     7965.4,  120.0,   0.99974
"SCN_CN12_9052_CEI083", 13.8, 1,          0,    0.0,         0, 2,          0,    0.0,         0, 3,          0,    0.0,         0
"SCN_CN12_9053_CEI083", 13.8, 1,          0,    0.0,         0, 2,          0,    0.0,         0, 3,          0,    0.0,         0
"SCN_CN12_9051_CEI083", 13.8, 1,          0,    0.0,         0, 2,          0,    0.0,         0, 3,          0,    0.0,         0
"SCN_CN12_9036_CEI083", 13.8, 1,          0,    0.0,         0, 2,          0,    0.0,         0, 3,          0,    0.0,         0
"SCN_CN12_CEI_FL_MT_1422", 13.8, 1,          0,    0.0,         0, 2,          0,    0.0,         0, 3,          0,    0.0,         0
"SCN_CN12_9035_CEI083", 13.8, 1,          0,    0.0,         0, 2,          0,    0.0,         0, 3,          0,    0.0,         0
"SCN_CN12_9038_CEI083", 13.8, 1,          0,    0.0,         0, 2,          0,    0.0,         0, 3,          0,    0.0,         0
"SCN_CN12_9039_CEI083", 13.8, 1,          0,    0.0,         0, 2,          0,    0.0,         0, 3,          0,    0.0,         0
"SCN_CN12_9050_CEI280_ATV", 13.8, 1,          0,    0.0,         0, 2,          0,    0.0,         0, 3,          0,    0.0,         0
"SCN_CN12_9037_CEI083", 13.8, 1,          0,    0.0,         0, 2,          0,    0.0,         0, 3,          0,    0.0,         0
"SCN_CN12_9021_CEI083", 13.8, 1,          0,    0.0,         0, 2,          0,    0.0,         0, 3,          0,    0.0,         0
"SCN_CN12_9022_CEI083", 13.8, 1,          0,    0.0,         0, 2,          0,    0.0,         0, 3,          0,    0.0,         0
"SCN_CN12_9023_CEI083", 13.8, 1,          0,    0.0,         0, 2,          0,    0.0,         0, 3,          0,    0.0,         0
"SCN_CN12_9024_CEI083", 13.8, 1,          0,    0.0,         0, 2,          0,    0.0,         0, 3,          0,    0.0,         0
"SCN_CN12_9025_CEI083", 13.8, 1,          0,    0.0,         0, 2,          0,    0.0,         0, 3,          0,    0.0,         0
"SCN_CN12_9026_CEI083_S", 13.8, 1,          0,    0.0,         0, 2,          0,    0.0,         0, 3,          0,    0.0,         0
"SCN_CN12_9027_CEI083", 13.8, 1,          0,    0.0,         0, 2,          0,    0.0,         0, 3,          0,    0.0,         0
"SCN_CN12_9028_CEI083", 13.8, 1,          0,    0.0,         0, 2,          0,    0.0,         0, 3,          0,    0.0,         0
"SCN_CN12_9029_CEI083", 13.8, 1,          0,    0.0,         0, 2,          0,    0.0,         0, 3,          0,    0.0,         0
"SCN_CN12_9030_CEI083", 13.8, 1,          0,    0.0,         0, 2,          0,    0.0,         0, 3,          0,    0.0,         0
"SCN_CN12_9031_CEI083", 13.8, 1,          0,    0.0,         0, 2,          0,    0.0,         0, 3,          0,    0.0,         0
"SCN_CN12_9032_CEI083", 13.8, 1,          0,    0.0,         0, 2,          0,    0.0,         0, 3,          0,    0.0,         0
"SCN_CN12_9033_CEI083", 13.8, 1,          0,    0.0,         0, 2,          0,    0.0,         0, 3,          0,    0.0,         0
"SCN_CN12_9034_CEI083", 13.8, 1,          0,    0.0,         0, 2,          0,    0.0,         0, 3,          0,    0.0,         0
"SCN_CN12_9053_CEI083_S", 13.8, 1,          0,    0.0,         0, 2,          0,    0.0,         0, 3,          0,    0.0,         0
"SCN_CN12_9054_CEI083", 13.8, 1,          0,    0.0,         0, 2,          0,    0.0,         0, 3,          0,    0.0,         0
"SCN_CN12_9074_CEI083", 13.8, 1,          0,    0.0,         0, 2,          0,    0.0,         0, 3,          0,    0.0,         0
"SCN_CN12_9058_CEI083", 13.8, 1,          0,    0.0,         0, 2,          0,    0.0,         0, 3,          0,    0.0,         0
"SCN_CN12_9059_CEI083", 13.8, 1,          0,    0.0,         0, 2,          0,    0.0,         0, 3,          0,    0.0,         0
"SCN_CN12_9057_CEI083", 13.8, 1,          0,    0.0,         0, 2,          0,    0.0,         0, 3,          0,    0.0,         0
"SCN_CN12_9056_CEI083", 13.8, 1,          0,    0.0,         0, 2,          0,    0.0,         0, 3,          0,    0.0,         0
"SCN_CN12_9055_CEI083", 13.8, 1,          0,    0.0,         0, 2,          0,    0.0,         0, 3,          0,    0.0,         0
"SCN_CN12_9060_CEI083", 13.8, 1,          0,    0.0,         0, 2,          0,    0.0,         0, 3,          0,    0.0,         0
"SCN_CN12_9061_CEI083", 13.8, 1,          0,    0.0,         0, 2,          0,    0.0,         0, 3,          0,    0.0,         0
"SCN_CN12_9062_CEI083", 13.8, 1,          0,    0.0,         0, 2,          0,    0.0,         0, 3,          0,    0.0,         0
"SCN_CN12_9065_CEI083", 13.8, 1,          0,    0.0,         0, 2,          0,    0.0,         0, 3,          0,    0.0,         0
"SCN_CN12_9066_CEI083", 13.8, 1,          0,    0.0,         0, 2,          0,    0.0,         0, 3,          0,    0.0,         0
...